[Format]      =  4.0
[Frequency]   =  0
[Precision]   =  1e-008
[MinAngle]    =  30
[DoSmartMesh] =  1
[Depth]       =  70
[LengthUnits] =  millimeters
[ProblemType] =  planar
[Coordinates] =  cartesian
[ACSolver]    =  0
[PrevType]    =  0
[PrevSoln]    =  ""
[Comment]     =  "Add comments here."
[PointProps]   = 0
[BdryProps]   = 0
[BlockProps]  = 0
[CircuitProps]  = 0
[NumPoints] = 17
0	0	0	0
13.02	0	0	0
14.02	0	0	0
24.700000000000003	0	0	0
12.350000000000005	21.390827473475635	0	0
6.5100000000000016	11.27565075727339	0	0
11.894361858506663	5.2957110928469175	0	0
12.807907316149263	5.7024477359227177	0	0
10.533401266761816	7.6529639848480002	0	0
11.342418261136762	8.2407492371404736	0	0
18.300000000000004	0	0	0
18.300000000000004	3.2000000000000002	0	0
11.921281292110208	14.248264889255228	0	0
14.02	3.2000000000000002	0	0
9.7812812921102044	10.541676161057827	0	0
25.500000000000004	0	0	0
12.750000000000005	22.083647796503186	0	0
[NumSegments] = 7
11	13	-1	0	0	0
12	14	-1	0	0	0
6	7	-1	0	0	0
8	9	-1	0	0	0
7	9	-1	0	0	0
13	7	-1	0	0	0
9	14	-1	0	0	0
[NumArcSegments] = 5
3	4	59.999999999999993	1	0	0	0	1
11	12	59.999999999999993	1	0	0	0	1
1	6	23.999999999999996	1	0	0	0	1
8	5	23.999999999999996	1	0	0	0	1
15	16	59.999999999999993	1	0	0	0	1
[NumHoles] = 0
[NumBlockLabels] = 0
