[Format]      =  4.0
[Frequency]   =  0
[Precision]   =  1e-008
[MinAngle]    =  30
[DoSmartMesh] =  1
[Depth]       =  70
[LengthUnits] =  millimeters
[ProblemType] =  planar
[Coordinates] =  cartesian
[ACSolver]    =  0
[PrevType]    =  0
[PrevSoln]    =  ""
[Comment]     =  "Add comments here."
[PointProps]   = 0
[BdryProps]   = 0
[BlockProps]  = 4
  <BeginBlock>
    <BlockName> = "Air"
    <Mu_x> = 1
    <Mu_y> = 1
    <H_c> = 0
    <H_cAngle> = 0
    <J_re> = 0
    <J_im> = 0
    <Sigma> = 0
    <d_lam> = 0
    <Phi_h> = 0
    <Phi_hx> = 0
    <Phi_hy> = 0
    <LamType> = 0
    <LamFill> = 1
    <NStrands> = 0
    <WireD> = 0
    <BHPoints> = 0
  <EndBlock>
  <BeginBlock>
    <BlockName> = "M-15 Steel"
    <Mu_x> = 1
    <Mu_y> = 1
    <H_c> = 0
    <H_cAngle> = 0
    <J_re> = 0
    <J_im> = 0
    <Sigma> = 1.8999999999999999
    <d_lam> = 0.63500000000000001
    <Phi_h> = 0
    <Phi_hx> = 0
    <Phi_hy> = 0
    <LamType> = 0
    <LamFill> = 0.97999999999999998
    <NStrands> = 0
    <WireD> = 0
    <BHPoints> = 47
      0	0
      0.050000000000000003	15.120714
      0.10000000000000001	22.718292000000002
      0.14999999999999999	27.842732999999999
      0.20000000000000001	31.871434000000001
      0.25	35.365043999999997
      0.29999999999999999	38.600588000000002
      0.34999999999999998	41.736201999999999
      0.40000000000000002	44.873978999999999
      0.45000000000000001	48.087806999999998
      0.5	51.437235999999999
      0.55000000000000004	54.975220999999998
      0.59999999999999998	58.752992999999996
      0.65000000000000002	62.823644000000002
      0.69999999999999996	67.245284999999996
      0.75	72.084406000000001
      0.80000000000000004	77.420100000000005
      0.84999999999999998	83.350020999999998
      0.90000000000000002	89.999611999999999
      0.94999999999999996	97.537352999999996
      1	106.20140600000001
      1.05	116.34846400000001
      1.1000000000000001	128.54732899999999
      1.1499999999999999	143.76543100000001
      1.2	163.75416899999999
      1.25	191.86815799999999
      1.3	234.833507
      1.3500000000000001	306.50976900000001
      1.3999999999999999	435.255202
      1.45	674.911968
      1.5	1108.3255690000001
      1.55	1813.085468
      1.6000000000000001	2801.2174209999998
      1.6499999999999999	4053.6531169999998
      1.7	5591.10689
      1.75	7448.318413
      1.8	9708.81567
      1.8500000000000001	12486.931615
      1.8999999999999999	16041.483644
      1.95	21249.420623999998
      2	31313.495878000002
      2.0499999999999998	53589.446877000002
      2.1000000000000001	88477.484601000004
      2.1499999999999999	124329.41054
      2.2000000000000002	159968.5693
      2.25	197751.604272
      2.2999999999999998	234024.75134700001
  <EndBlock>
  <BeginBlock>
    <BlockName> = "20 AWG"
    <Mu_x> = 1
    <Mu_y> = 1
    <H_c> = 0
    <H_cAngle> = 0
    <J_re> = 0
    <J_im> = 0
    <Sigma> = 58
    <d_lam> = 0
    <Phi_h> = 0
    <Phi_hx> = 0
    <Phi_hy> = 0
    <LamType> = 3
    <LamFill> = 1
    <NStrands> = 1
    <WireD> = 0.812049969500513
    <BHPoints> = 0
  <EndBlock>
  <BeginBlock>
    <BlockName> = "Aluminum, 6061-T6"
    <Mu_x> = 1
    <Mu_y> = 1
    <H_c> = 0
    <H_cAngle> = 0
    <J_re> = 0
    <J_im> = 0
    <Sigma> = 24.59
    <d_lam> = 0
    <Phi_h> = 0
    <Phi_hx> = 0
    <Phi_hy> = 0
    <LamType> = 0
    <LamFill> = 1
    <NStrands> = 0
    <WireD> = 0
    <BHPoints> = 0
  <EndBlock>
[CircuitProps]  = 42
  <BeginCircuit>
    <CircuitName> = "A+"
    <TotalAmps_re> = 0
    <TotalAmps_im> = 0
    <CircuitType> = 1
  <EndCircuit>
  <BeginCircuit>
    <CircuitName> = "A-"
    <TotalAmps_re> = 0
    <TotalAmps_im> = 0
    <CircuitType> = 1
  <EndCircuit>
  <BeginCircuit>
    <CircuitName> = "B+"
    <TotalAmps_re> = -17.320508075688775
    <TotalAmps_im> = -0
    <CircuitType> = 1
  <EndCircuit>
  <BeginCircuit>
    <CircuitName> = "B-"
    <TotalAmps_re> = 17.320508075688775
    <TotalAmps_im> = 0
    <CircuitType> = 1
  <EndCircuit>
  <BeginCircuit>
    <CircuitName> = "C+"
    <TotalAmps_re> = 17.320508075688775
    <TotalAmps_im> = 0
    <CircuitType> = 1
  <EndCircuit>
  <BeginCircuit>
    <CircuitName> = "C-"
    <TotalAmps_re> = -17.320508075688775
    <TotalAmps_im> = -0
    <CircuitType> = 1
  <EndCircuit>
  <BeginCircuit>
    <CircuitName> = "A+"
    <TotalAmps_re> = 16.829419696157931
    <TotalAmps_im> = 0
    <CircuitType> = 1
  <EndCircuit>
  <BeginCircuit>
    <CircuitName> = "A-"
    <TotalAmps_re> = -16.829419696157931
    <TotalAmps_im> = -0
    <CircuitType> = 1
  <EndCircuit>
  <BeginCircuit>
    <CircuitName> = "B+"
    <TotalAmps_re> = -17.77302030018134
    <TotalAmps_im> = -0
    <CircuitType> = 1
  <EndCircuit>
  <BeginCircuit>
    <CircuitName> = "B-"
    <TotalAmps_re> = 17.77302030018134
    <TotalAmps_im> = 0
    <CircuitType> = 1
  <EndCircuit>
  <BeginCircuit>
    <CircuitName> = "C+"
    <TotalAmps_re> = 0.94360060402341017
    <TotalAmps_im> = 0
    <CircuitType> = 1
  <EndCircuit>
  <BeginCircuit>
    <CircuitName> = "C-"
    <TotalAmps_re> = -0.94360060402341017
    <TotalAmps_im> = -0
    <CircuitType> = 1
  <EndCircuit>
  <BeginCircuit>
    <CircuitName> = "A+"
    <TotalAmps_re> = 18.185948536513628
    <TotalAmps_im> = 0
    <CircuitType> = 1
  <EndCircuit>
  <BeginCircuit>
    <CircuitName> = "A-"
    <TotalAmps_re> = -18.185948536513628
    <TotalAmps_im> = -0
    <CircuitType> = 1
  <EndCircuit>
  <BeginCircuit>
    <CircuitName> = "B+"
    <TotalAmps_re> = -1.8850996251696881
    <TotalAmps_im> = -0
    <CircuitType> = 1
  <EndCircuit>
  <BeginCircuit>
    <CircuitName> = "B-"
    <TotalAmps_re> = 1.8850996251696881
    <TotalAmps_im> = 0
    <CircuitType> = 1
  <EndCircuit>
  <BeginCircuit>
    <CircuitName> = "C+"
    <TotalAmps_re> = -16.300848911343934
    <TotalAmps_im> = -0
    <CircuitType> = 1
  <EndCircuit>
  <BeginCircuit>
    <CircuitName> = "C-"
    <TotalAmps_re> = 16.300848911343934
    <TotalAmps_im> = 0
    <CircuitType> = 1
  <EndCircuit>
  <BeginCircuit>
    <CircuitName> = "A+"
    <TotalAmps_re> = 2.8224001611973355
    <TotalAmps_im> = 0
    <CircuitType> = 1
  <EndCircuit>
  <BeginCircuit>
    <CircuitName> = "A-"
    <TotalAmps_re> = -2.8224001611973355
    <TotalAmps_im> = -0
    <CircuitType> = 1
  <EndCircuit>
  <BeginCircuit>
    <CircuitName> = "B+"
    <TotalAmps_re> = 15.735972951640642
    <TotalAmps_im> = 0
    <CircuitType> = 1
  <EndCircuit>
  <BeginCircuit>
    <CircuitName> = "B-"
    <TotalAmps_re> = -15.735972951640642
    <TotalAmps_im> = -0
    <CircuitType> = 1
  <EndCircuit>
  <BeginCircuit>
    <CircuitName> = "C+"
    <TotalAmps_re> = -18.558373112837977
    <TotalAmps_im> = -0
    <CircuitType> = 1
  <EndCircuit>
  <BeginCircuit>
    <CircuitName> = "C-"
    <TotalAmps_re> = 18.558373112837977
    <TotalAmps_im> = 0
    <CircuitType> = 1
  <EndCircuit>
  <BeginCircuit>
    <CircuitName> = "A+"
    <TotalAmps_re> = -15.136049906158577
    <TotalAmps_im> = -0
    <CircuitType> = 1
  <EndCircuit>
  <BeginCircuit>
    <CircuitName> = "A-"
    <TotalAmps_re> = 15.136049906158577
    <TotalAmps_im> = 0
    <CircuitType> = 1
  <EndCircuit>
  <BeginCircuit>
    <CircuitName> = "B+"
    <TotalAmps_re> = 18.889464566869915
    <TotalAmps_im> = 0
    <CircuitType> = 1
  <EndCircuit>
  <BeginCircuit>
    <CircuitName> = "B-"
    <TotalAmps_re> = -18.889464566869915
    <TotalAmps_im> = -0
    <CircuitType> = 1
  <EndCircuit>
  <BeginCircuit>
    <CircuitName> = "C+"
    <TotalAmps_re> = -3.7534146607113366
    <TotalAmps_im> = -0
    <CircuitType> = 1
  <EndCircuit>
  <BeginCircuit>
    <CircuitName> = "C-"
    <TotalAmps_re> = 3.7534146607113366
    <TotalAmps_im> = 0
    <CircuitType> = 1
  <EndCircuit>
  <BeginCircuit>
    <CircuitName> = "A+"
    <TotalAmps_re> = -19.178485493262766
    <TotalAmps_im> = -0
    <CircuitType> = 1
  <EndCircuit>
  <BeginCircuit>
    <CircuitName> = "A-"
    <TotalAmps_re> = 19.178485493262766
    <TotalAmps_im> = 0
    <CircuitType> = 1
  <EndCircuit>
  <BeginCircuit>
    <CircuitName> = "B+"
    <TotalAmps_re> = 4.6760695725480259
    <TotalAmps_im> = 0
    <CircuitType> = 1
  <EndCircuit>
  <BeginCircuit>
    <CircuitName> = "B-"
    <TotalAmps_re> = -4.6760695725480259
    <TotalAmps_im> = -0
    <CircuitType> = 1
  <EndCircuit>
  <BeginCircuit>
    <CircuitName> = "C+"
    <TotalAmps_re> = 14.502415920714737
    <TotalAmps_im> = 0
    <CircuitType> = 1
  <EndCircuit>
  <BeginCircuit>
    <CircuitName> = "C-"
    <TotalAmps_re> = -14.502415920714737
    <TotalAmps_im> = -0
    <CircuitType> = 1
  <EndCircuit>
  <BeginCircuit>
    <CircuitName> = "A+"
    <TotalAmps_re> = -5.5883099639785003
    <TotalAmps_im> = -0
    <CircuitType> = 1
  <EndCircuit>
  <BeginCircuit>
    <CircuitName> = "A-"
    <TotalAmps_re> = 5.5883099639785003
    <TotalAmps_im> = 0
    <CircuitType> = 1
  <EndCircuit>
  <BeginCircuit>
    <CircuitName> = "B+"
    <TotalAmps_re> = -13.836482221974826
    <TotalAmps_im> = -0
    <CircuitType> = 1
  <EndCircuit>
  <BeginCircuit>
    <CircuitName> = "B-"
    <TotalAmps_re> = 13.836482221974826
    <TotalAmps_im> = 0
    <CircuitType> = 1
  <EndCircuit>
  <BeginCircuit>
    <CircuitName> = "C+"
    <TotalAmps_re> = 19.424792185953322
    <TotalAmps_im> = 0
    <CircuitType> = 1
  <EndCircuit>
  <BeginCircuit>
    <CircuitName> = "C-"
    <TotalAmps_re> = -19.424792185953322
    <TotalAmps_im> = -0
    <CircuitType> = 1
  <EndCircuit>
[NumPoints] = 73
0	0	0	0
13.02	0	0	0
14.02	0	0	0
24.700000000000003	0	0	0
12.350000000000005	21.390827473475635	0	0
6.5100000000000016	11.27565075727339	0	0
11.894361858506663	5.2957110928469175	0	0
12.807907316149263	5.7024477359227177	0	0
10.533401266761816	7.6529639848480002	0	0
11.342418261136762	8.2407492371404736	0	0
18.300000000000004	0	0	0
18.300000000000004	3.2000000000000002	0	0
11.921281292110208	14.248264889255228	0	0
14.02	3.2000000000000002	0	0
9.7812812921102044	10.541676161057827	0	0
25.500000000000004	0	0	0
12.750000000000005	22.083647796503186	0	0
1.36096059174485	12.948675077694917	0	0
-6.5099999999999971	11.275650757273391	0	0
-10.533401266761812	7.652963984848002	0	0
-13.02	7.3765316447376687e-015	0	0
-11.894361858506667	-5.2957110928469104	0	0
-6.510000000000006	-11.275650757273388	0	0
-1.3609605917448553	-12.948675077694917	0	0
6.50999999999999	-11.275650757273397	0	0
10.533401266761807	-7.6529639848480082	0	0
1.4654890550125046	13.94319697306319	0	0
-11.342418261136759	8.2407492371404754	0	0
-12.807907316149267	-5.7024477359227106	0	0
-1.465489055012509	-13.943196973063191	0	0
11.342418261136753	-8.2407492371404807	0	0
4.2387187078897979	13.741676161057828	0	0
-9.7812812921102008	10.541676161057831	0	0
-14.020000000000001	-3.1999999999999922	0	0
-4.2387187078898032	-13.741676161057827	0	0
9.7812812921101955	-10.541676161057836	0	0
6.3787187078898002	17.448264889255231	0	0
-11.921281292110203	14.248264889255232	0	0
-18.300000000000008	-3.19999999999999	0	0
-6.3787187078898082	-17.448264889255228	0	0
11.921281292110194	-14.248264889255241	0	0
-6.3787187078897931	17.448264889255235	0	0
-18.300000000000001	3.2000000000000082	0	0
-11.921281292110217	-14.248264889255221	0	0
6.3787187078897851	-17.448264889255235	0	0
18.300000000000001	-3.2000000000000188	0	0
-4.2387187078897925	13.74167616105783	0	0
-14.019999999999998	3.2000000000000046	0	0
-9.7812812921102097	-10.541676161057822	0	0
4.2387187078897872	-13.74167616105783	0	0
14.019999999999996	-3.2000000000000135	0	0
-1.465489055012501	13.943196973063191	0	0
-12.807907316149262	5.7024477359227213	0	0
-11.342418261136768	-8.2407492371404665	0	0
1.4654890550124948	-13.943196973063193	0	0
12.80790731614926	-5.7024477359227292	0	0
-1.3609605917448464	12.948675077694919	0	0
-11.894361858506661	5.295711092846922	0	0
-10.533401266761819	-7.652963984847994	0	0
1.360960591744842	-12.94867507769492	0	0
11.89436185850666	-5.2957110928469291	0	0
-12.349999999999994	21.390827473475639	0	0
-24.700000000000003	1.0658141036401503e-014	0	0
-12.350000000000017	-21.390827473475628	0	0
12.349999999999987	-21.390827473475646	0	0
-12.749999999999996	22.083647796503193	0	0
-25.500000000000004	1.0658141036401503e-014	0	0
-12.750000000000018	-22.083647796503179	0	0
12.749999999999986	-22.083647796503197	0	0
9.5435999497045145	-5.5099999999999989	0	0
9.5435999497045145	5.5099999999999989	0	0
-9.5435999497045145	5.5099999999999989	0	0
-9.5435999497045145	-5.5099999999999989	0	0
[NumSegments] = 44
11	13	-1	0	0	0
12	14	-1	0	0	0
6	7	-1	0	0	0
8	9	-1	0	0	0
7	9	-1	0	0	0
13	7	-1	0	0	0
9	14	-1	0	0	0
17	26	-1	0	0	0
19	27	-1	0	0	0
21	28	-1	0	0	0
23	29	-1	0	0	0
25	30	-1	0	0	0
31	26	-1	0	0	0
32	27	-1	0	0	0
33	28	-1	0	0	0
34	29	-1	0	0	0
35	30	-1	0	0	0
36	31	-1	0	0	0
37	32	-1	0	0	0
38	33	-1	0	0	0
39	34	-1	0	0	0
40	35	-1	0	0	0
41	46	-1	0	0	0
42	47	-1	0	0	0
43	48	-1	0	0	0
44	49	-1	0	0	0
45	50	-1	0	0	0
51	46	-1	0	0	0
52	47	-1	0	0	0
53	48	-1	0	0	0
54	49	-1	0	0	0
55	50	-1	0	0	0
56	51	-1	0	0	0
57	52	-1	0	0	0
58	53	-1	0	0	0
59	54	-1	0	0	0
60	55	-1	0	0	0
26	51	-1	0	0	0
27	52	-1	0	0	0
28	53	-1	0	0	0
29	54	-1	0	0	0
30	55	-1	0	0	0
69	72	-1	0	0	0
70	71	-1	0	0	0
[NumArcSegments] = 32
3	4	59.999999999999993	1	0	0	0	1
11	12	59.999999999999993	1	0	0	0	1
1	6	23.999999999999996	1	0	0	0	1
8	5	23.999999999999996	1	0	0	0	1
15	16	59.999999999999993	1	0	0	0	1
5	17	23.999999999999996	1	0	0	0	1
18	19	23.999999999999996	1	0	0	0	1
20	21	23.999999999999996	1	0	0	0	1
22	23	23.999999999999996	1	0	0	0	1
24	25	23.999999999999996	1	0	0	0	1
36	41	59.999999999999993	1	0	0	0	1
37	42	59.999999999999993	1	0	0	0	1
38	43	59.999999999999993	1	0	0	0	1
39	44	59.999999999999993	1	0	0	0	1
40	45	59.999999999999993	1	0	0	0	1
56	18	23.999999999999996	1	0	0	0	1
57	20	23.999999999999996	1	0	0	0	1
58	22	23.999999999999996	1	0	0	0	1
59	24	23.999999999999996	1	0	0	0	1
60	1	23.999999999999996	1	0	0	0	1
4	61	59.999999999999993	1	0	0	0	1
61	62	59.999999999999993	1	0	0	0	1
62	63	59.999999999999993	1	0	0	0	1
63	64	59.999999999999993	1	0	0	0	1
64	3	59.999999999999993	1	0	0	0	1
16	65	59.999999999999993	1	0	0	0	1
65	66	59.999999999999993	1	0	0	0	1
66	67	59.999999999999993	1	0	0	0	1
67	68	59.999999999999993	1	0	0	0	1
68	15	59.999999999999993	1	0	0	0	1
69	70	60	1	0	0	0	1
71	72	60	1	0	0	0	1
[NumHoles] = 0
[NumBlockLabels] = 10
12.02	0	1	-1	0	0	1	1	0
1	0	2	-1	0	0	1	1	0
0	21.500000000000004	2	-1	0	0	1	1	0
0	16.219999999999999	3	-1	37	0	3	10	0
25.100000000000001	0	4	-1	0	0	1	1	0
-14.046932049383592	8.1100000000000012	3	-1	42	0	8	10	0
-14.046932049383594	-8.1099999999999959	3	-1	39	0	7	10	0
-1.9863771082170066e-015	-16.219999999999999	3	-1	38	0	6	10	0
14.046932049383589	-8.1100000000000065	3	-1	41	0	5	10	0
14.046932049383592	8.1100000000000012	3	-1	40	0	4	10	0
